0.AAAANxlymq5VJECsDbJ7E8LHBY1eiY_0sP9LitzXGsoYqIhKAOI.AgABAAAAAAB2UyzwtQEKR7-rWbgdcBZIAQDs_wIA9P9IoDZWrtN2GpRVmubaR6NbOK7cJ0zvMTvo2nDK6yKj9lkO9FninQEo7n4fB3wxFfjKRriGU5MG4j6jZh0VMqt6f0l_vEqhSiTqzWYxUpN0MDN6FSREZHFJf43woZBsXdhdU86BXTsDVqDX3yc_ic8YgpIWSarBi5eY4RcMBkJ4sp3d8QcW8_k1l1Y8auzEiKBg4eCtTMDzQ8jWarwMlTqkSRKMeUlD9BGj5x53dl1jQ4_j68u5RNaxutUz_QhzNkMpLDZskld6zFXaKCf2o7su62L_N8SZJbXhYp8OsuI1MDAzvzaBQXdOpm4blWc3ycgKI_OK1G77sO3fGkh39WAAGNMODaQ25kS42bmnXKFp8Z5pmuLy02TmRavRS-NlMuuR73aUpQxcX01M33zwVjNCTabqimqPvSIOj3F_hjIKhfloK5XrGUvd1Qvv6BtdJquFMh0AOs65E-_qaODdeWKK8p2kw1jF-4XP9iK1ukqihvli8sTvzxRmVkifmkxs6cgOahY8a9r7e3XZWYNfEcoKu2b07kOAbnEQyegF8Daao-ph38P7W1X6v__le4aRB29C-HnrklDrGrotB0dZ_kS8ls6oviHSbOBdupWUK6mEVOIWasVco7-mL4NW6tsV8dhfhSptbSfM602rSzK6brmSAlwRrOHlH6OQ2zsomZZvoD8lyxAB7nerOljniXw1bmBTSdxKhUwLbDphocObKXulokOjwwnbMrbrU4Z_HuZOOKM78mFHlo3mj2XeI6F8ibqBbiZayNkW9d1rNbYQz9h-kNiiv0qNjrR5gyKI1PCFX-5ohCdSVw9aogNW60BAgLCL68A3ggOXiZ1J-R6E_OPnolKOrGENzVbw12i4hTtBavSkeLYcJ7kPLxyzx86-MSkRkNQStDycqzBhcvnTLh7YyP147MPSVUhK0lKp4dGRZ6aqzTH8PUKcgw